104
 generated by VMD
  N         -2.357000       -2.863000        5.510000
  HT2       -2.454000       -3.385000        6.420000
  HT3       -1.711000       -1.991000        5.649000
  CA        -2.048000       -3.686000        4.313000
  HA        -1.025000       -3.979000        4.245000
  CB        -3.045000       -4.826000        4.365000
  HB1       -3.091000       -5.513000        5.222000
  HB2       -4.089000       -4.474000        4.383000
  HB3       -2.879000       -5.458000        3.437000
  C         -2.351000       -2.850000        3.103000
  O         -1.482000       -2.783000        2.191000
  N         -3.522000       -2.152000        2.985000
  HN        -4.216000       -2.122000        3.734000
  CA        -3.831000       -1.255000        1.909000
  HA        -3.228000       -1.498000        1.093000
  CB        -5.343000       -1.387000        1.623000
  HB1       -5.657000       -0.736000        0.784000
  HB2       -5.604000       -2.466000        1.368000
  HB3       -6.037000       -1.182000        2.512000
  C         -3.437000        0.195000        2.205000
  O         -3.078000        0.503000        3.341000
  N         -3.250000        1.051000        1.196000
  HN        -3.415000        0.721000        0.292000
  CA        -2.734000        2.454000        1.258000
  HA        -2.887000        2.925000        0.327000
  CB        -3.677000        3.233000        2.305000
  HB1       -4.727000        2.869000        2.361000
  HB2       -3.180000        3.069000        3.300000
  HB3       -3.660000        4.311000        2.111000
  C         -1.253000        2.701000        1.525000
  O         -0.514000        3.239000        0.661000
  N         -0.768000        2.325000        2.738000
  HN        -1.393000        1.825000        3.398000
  CA         0.692000        2.415000        3.011000
  HA         1.015000        3.399000        2.822000
  CB         0.778000        2.152000        4.512000
  HB1        0.235000        1.178000        4.610000
  HB2        1.813000        2.072000        4.926000
  HB3        0.213000        2.929000        5.161000
  C          1.488000        1.424000        2.171000
  O          2.328000        1.837000        1.431000
  N          1.181000        0.078000        2.329000
  HN         0.506000       -0.263000        2.952000
  CA         1.863000       -0.816000        1.483000
  HA         2.825000       -0.447000        1.341000
  CB         1.897000       -2.230000        2.168000
  HB1        1.946000       -2.157000        3.310000
  HB2        1.041000       -2.839000        2.032000
  HB3        2.823000       -2.824000        1.801000
  C          1.292000       -1.006000        0.128000
  O          1.791000       -0.531000       -0.861000
  N          0.170000       -1.657000       -0.045000
  HN        -0.291000       -2.155000        0.662000
  CA        -0.478000       -1.758000       -1.390000
  HA         0.391000       -2.011000       -2.054000
  CB        -1.447000       -2.899000       -1.410000
  HB1       -1.617000       -3.304000       -2.409000
  HB2       -1.022000       -3.818000       -0.905000
  HB3       -2.361000       -2.572000       -0.879000
  C         -1.172000       -0.487000       -1.745000
  O         -1.926000        0.057000       -0.893000
  N         -1.072000       -0.141000       -3.014000
  HN        -0.532000       -0.751000       -3.624000
  CA        -1.222000        1.148000       -3.654000
  HA        -1.484000        0.860000       -4.642000
  CB        -2.469000        1.893000       -3.235000
  HB1       -2.419000        2.175000       -2.157000
  HB2       -2.581000        2.893000       -3.860000
  HB3       -3.385000        1.382000       -3.492000
  C          0.041000        1.973000       -3.723000
  O          0.610000        2.151000       -4.768000
  N          0.559000        2.440000       -2.605000
  HN         0.092000        2.284000       -1.772000
  CA         1.728000        3.324000       -2.477000
  HA         1.616000        3.973000       -3.300000
  CB         1.773000        4.145000       -1.135000
  HB1        0.875000        4.890000       -1.086000
  HB2        1.653000        3.533000       -0.233000
  HB3        2.728000        4.720000       -0.927000
  C          2.991000        2.618000       -2.693000
  O          3.616000        2.642000       -3.759000
  N          3.523000        1.903000       -1.683000
  HN         3.055000        1.804000       -0.798000
  CA         4.855000        1.284000       -1.750000
  HA         5.632000        1.952000       -2.154000
  CB         5.404000        0.950000       -0.306000
  HB1        5.464000        1.895000        0.314000
  HB2        4.700000        0.218000        0.145000
  HB3        6.433000        0.511000       -0.344000
  C          4.854000        0.056000       -2.660000
  O          5.863000       -0.242000       -3.379000
  C          2.252000       -1.197000       -4.713000
  O          1.110000       -1.542000       -4.537000
  NT         2.577000       -0.443000       -5.773000
  HT1        1.830000       -0.403000       -6.492000
  HT2        3.508000       -0.019000       -5.930000
  N          3.720000       -0.669000       -2.747000
  HN         2.936000       -0.435000       -2.257000
  CA         3.413000       -1.734000       -3.746000
  HA         4.184000       -1.799000       -4.384000
  CB         2.999000       -3.069000       -3.111000
  HB1        2.121000       -2.984000       -2.408000
  HB2        2.705000       -3.856000       -3.901000
  HB3        3.943000       -3.463000       -2.540000
