10
 generated by VMD
  CA        -0.614712        0.545425        0.156398
  CA         0.201690        0.110005       -0.379748
  CA        -0.527175       -0.376172        0.458974
  CA         0.208477       -0.889834        0.214192
  CA        -0.819495        0.597010       -0.165299
  CA        -0.094682        0.477758       -0.812245
  CA         0.661860       -0.821334        0.974696
  CA        -0.299163        0.651142        0.302299
  CA         0.704335       -0.222243       -0.569884
  CA         0.590856       -0.637484        0.246425
